/*--------------------------------*- C++ -*---------------------------------*\ 
| =========                |                                                 | 
| \      /  F ield         | OpenFOAM: The Open Source CFD Toolbox           | 
|  \    /   O peration     | Version:  2.3.1                                 | 
|   \  /    A nd           | Web:      www.OpenFOAM.org                      | 
|    \/     M anipulation  | Auto by:  NAVYK www.navyk.com                   | 
\*--------------------------------------------------------------------------*/ 
FoamFile 
{ 
    version     2.0; 
    format      ascii; 
    class       dictionary; 
    location    "system"; 
    object      setFieldsDict; 
} 
// * * * * * * * * * * * * * * * * * * * * * * * * * * * * * * * * * * * * * // 
defaultFieldValues
(
    volScalarFieldValue alpha.water 0
);

regions
(
    // Set cell values
    // (does zerogradient on boundaries)
    boxToCell
    {
        box (-999 -999 -999) (999 999 1.400);

        fieldValues
        (
            volScalarFieldValue alpha.water 1
        );
    }

    // Set patch values (using ==)
    boxToFace
    {
        box (-999 -999 -999) (999 999 1.400);

        fieldValues
        (
            volScalarFieldValue alpha.water 1
        );
    }
);

// ************************************************************************* //