/*--------------------------------*- C++ -*---------------------------------*\ 
| =========                |                                                 | 
| \      /  F ield         | OpenFOAM: The Open Source CFD Toolbox           | 
|  \    /   O peration     | Version:  2.3.1                                 | 
|   \  /    A nd           | Web:      www.OpenFOAM.org                      | 
|    \/     M anipulation  | Auto by:  NAVYK www.navyk.com                   | 
\*--------------------------------------------------------------------------*/ 
FoamFile 
{ 
    version     2.0; 
    format      ascii; 
    class       dictionary; 
    object      blockMeshDict; 
} 
// * * * * * * * * * * * * * * * * * * * * * * * * * * * * * * * * * * * * * // 
 
convertToMeters 1; 
vertices 
( 
    (-117882.961 -50000.0 -68.6)
    (74533.242 -50000.0 -68.6)
    (74533.242 0.0 -68.6)
    (-117882.961 0.0 -68.6)

    (-117882.961 -50000.0 -4.62)
    (74533.242 -50000.0 -4.62)
    (74533.242 0.0 -4.62)
    (-117882.961 0.0 -4.62)

    (-117882.961 -50000.0 0.98)
    (74533.242 -50000.0 0.98)
    (74533.242 0.0 0.98)
    (-117882.961 0.0 0.98)

    (-117882.961 -50000.0 1.4)
    (74533.242 -50000.0 1.4)
    (74533.242 0.0 1.4)
    (-117882.961 0.0 1.4)

    (-117882.961 -50000.0 1.82)
    (74533.242 -50000.0 1.82)
    (74533.242 0.0 1.82)
    (-117882.961 0.0 1.82)

    (-117882.961 -50000.0 7.42)
    (74533.242 -50000.0 7.42)
    (74533.242 0.0 7.42)
    (-117882.961 0.0 7.42)

    (-117882.961 -50000.0 18.9)
    (74533.242 -50000.0 18.9)
    (74533.242 0.0 18.9)
    (-117882.961 0.0 18.9)

); 
 
blocks 
( 
    hex (0 1 2 3 4 5 6 7) (42 19 50) simpleGrading (1.0 1.0 0.05) 
    hex (4 5 6 7 8 9 10 11) (42 19 50) simpleGrading (1.0 1.0 1.0) 
    hex (8 9 10 11 12 13 14 15) (42 19 5) simpleGrading (1.0 1.0 1.0) 
    hex (12 13 14 15 16 17 18 19) (42 19 5) simpleGrading (1.0 1.0 1.0) 
    hex (16 17 18 19 20 21 22 23) (42 19 50) simpleGrading (1.0 1.0 1.0) 
    hex (20 21 22 23 24 25 26 27) (42 19 20) simpleGrading (1.0 1.0 5.0) 
); 

edges 
( 
); 
boundary 
( 
    atmosphere 
    { 
        type patch; 
        faces 
        ( 
            (24 25 26 27) 
        ); 
    } 
    inlet 
    { 
        type patch; 
        faces 
        ( 
            (1 2 6 5) 
            (5 6 10 9) 
            (9 10 14 13) 
            (13 14 18 17) 
            (17 18 22 21) 
            (21 22 26 25) 
        ); 
    } 
    outlet 
    { 
        type patch; 
        faces 
        ( 
            (0 4 7 3) 
            (4 8 11 7) 
            (8 12 15 11) 
            (12 16 19 15) 
            (16 20 23 19) 
            (20 24 27 23) 
        ); 
    } 
    bottom 
    { 
        type symmetryPlane; 
        faces 
        ( 
            (0 3 2 1) 
        ); 
    } 
    side 
    { 
        type symmetryPlane; 
        faces 
        ( 
            (0 1 5 4) 
            (4 5 9 8) 
            (8 9 13 12) 
            (12 13 17 16) 
            (16 17 21 20) 
            (20 21 25 24) 
        ); 
    } 
    midPlane 
    { 
        type symmetryPlane; 
        faces 
        ( 
            (3 7 6 2) 
            (7 11 10 6) 
            (11 15 14 10) 
            (15 19 18 14) 
            (19 23 22 18) 
            (23 27 26 22) 
        ); 
    } 
); 
 
mergePatchPairs 
( 
); 
 
// ************************************************************************* //